* Coriolis Structural SPICE Driver
* Generated on Apr 11, 2023, 23:43
* Cell/Subckt "arlet6502_cts_r".
* 
* INTERF we
* INTERF vss
* INTERF vdd
* INTERF reset
* INTERF rdy
* INTERF nmi
* INTERF irq
* INTERF do[7]
* INTERF do[6]
* INTERF do[5]
* INTERF do[4]
* INTERF do[3]
* INTERF do[2]
* INTERF do[1]
* INTERF do[0]
* INTERF di[7]
* INTERF di[6]
* INTERF di[5]
* INTERF di[4]
* INTERF di[3]
* INTERF di[2]
* INTERF di[1]
* INTERF di[0]
* INTERF clk
* INTERF a[9]
* INTERF a[8]
* INTERF a[7]
* INTERF a[6]
* INTERF a[5]
* INTERF a[4]
* INTERF a[3]
* INTERF a[2]
* INTERF a[15]
* INTERF a[14]
* INTERF a[13]
* INTERF a[12]
* INTERF a[11]
* INTERF a[10]
* INTERF a[1]
* INTERF a[0]

* Terminal models (aka standard cells) used througout all the hierarchy.
.include decap_w0.spi
.include o2_x2.spi
.include mx2_x2.spi
.include ao22_x2.spi
.include a3_x2.spi
.include oa22_x2.spi
.include nand3_x0.spi
.include nand2_x0.spi
.include nand4_x0.spi
.include a2_x2.spi
.include sff1_x4.spi
.include tie.spi
.include o4_x2.spi
.include nxr2_x1.spi
.include buf_x4.spi
.include a4_x2.spi
.include nor2_x0.spi
.include mx3_x2.spi
.include inv_x0.spi
.include nor3_x0.spi
.include nor4_x0.spi
.include o3_x2.spi
.include xr2_x1.spi

* Non-terminal models (part of the user's design hierarchy).

.subckt arlet6502_cts_r 0 1 2 8 9 10 177 184 185 186 187 188 189 190 191 192 193 194 195 196 197 198 199 213 1969 1970 1971 1972 1973 1974 1975 1976 1977 1978 1979 1980 1981 1982 1983 1984
* NET     0 = we
* NET     1 = vss
* NET     2 = vdd
* NET     3 = reset_root_tr_0
* NET     4 = reset_root_tl_0
* NET     5 = reset_root_br_0
* NET     6 = reset_root_bl_0
* NET     7 = reset_root_0
* NET     8 = reset
* NET     9 = rdy
* NET    10 = nmi
* NET    11 = mos6502_z
* NET    12 = mos6502_write_back
* NET    13 = mos6502_v
* NET    14 = mos6502_store
* NET    15 = mos6502_state_bit4_hfns_2
* NET    16 = mos6502_state_bit4_hfns_1
* NET    17 = mos6502_state_bit4_hfns_0
* NET    18 = mos6502_state_bit3_hfns_2
* NET    19 = mos6502_state_bit3_hfns_1
* NET    20 = mos6502_state_bit3_hfns_0
* NET    21 = mos6502_state_bit2_hfns_2
* NET    22 = mos6502_state_bit2_hfns_1
* NET    23 = mos6502_state_bit2_hfns_0
* NET    24 = mos6502_state_bit0_hfns_2
* NET    25 = mos6502_state_bit0_hfns_1
* NET    26 = mos6502_state_bit0_hfns_0
* NET    27 = mos6502_state[5]
* NET    28 = mos6502_state[4]
* NET    29 = mos6502_state[3]
* NET    30 = mos6502_state[2]
* NET    31 = mos6502_state[1]
* NET    32 = mos6502_state[0]
* NET    33 = mos6502_src_reg[1]
* NET    34 = mos6502_src_reg[0]
* NET    35 = mos6502_shift_right
* NET    36 = mos6502_shift
* NET    37 = mos6502_sei
* NET    38 = mos6502_sed
* NET    39 = mos6502_sec
* NET    40 = mos6502_rotate
* NET    41 = mos6502_res
* NET    42 = mos6502_plp
* NET    43 = mos6502_php
* NET    44 = mos6502_pc[9]
* NET    45 = mos6502_pc[8]
* NET    46 = mos6502_pc[7]
* NET    47 = mos6502_pc[6]
* NET    48 = mos6502_pc[5]
* NET    49 = mos6502_pc[4]
* NET    50 = mos6502_pc[3]
* NET    51 = mos6502_pc[2]
* NET    52 = mos6502_pc[15]
* NET    53 = mos6502_pc[14]
* NET    54 = mos6502_pc[13]
* NET    55 = mos6502_pc[12]
* NET    56 = mos6502_pc[11]
* NET    57 = mos6502_pc[10]
* NET    58 = mos6502_pc[1]
* NET    59 = mos6502_pc[0]
* NET    60 = mos6502_op[3]
* NET    61 = mos6502_op[2]
* NET    62 = mos6502_op[1]
* NET    63 = mos6502_op[0]
* NET    64 = mos6502_nmi_edge
* NET    65 = mos6502_nmi_1
* NET    66 = mos6502_n
* NET    67 = mos6502_load_reg
* NET    68 = mos6502_load_only
* NET    69 = mos6502_irhold_valid_hfns_2
* NET    70 = mos6502_irhold_valid_hfns_1
* NET    71 = mos6502_irhold_valid_hfns_0
* NET    72 = mos6502_irhold_valid
* NET    73 = mos6502_irhold[7]
* NET    74 = mos6502_irhold[6]
* NET    75 = mos6502_irhold[5]
* NET    76 = mos6502_irhold[4]
* NET    77 = mos6502_irhold[3]
* NET    78 = mos6502_irhold[2]
* NET    79 = mos6502_irhold[1]
* NET    80 = mos6502_irhold[0]
* NET    81 = mos6502_index_y
* NET    82 = mos6502_inc
* NET    83 = mos6502_i
* NET    84 = mos6502_dst_reg[1]
* NET    85 = mos6502_dst_reg[0]
* NET    86 = mos6502_dimux[7]
* NET    87 = mos6502_dimux[6]
* NET    88 = mos6502_dimux[5]
* NET    89 = mos6502_dimux[4]
* NET    90 = mos6502_dimux[3]
* NET    91 = mos6502_dimux[2]
* NET    92 = mos6502_dimux[1]
* NET    93 = mos6502_dimux[0]
* NET    94 = mos6502_dihold[7]
* NET    95 = mos6502_dihold[6]
* NET    96 = mos6502_dihold[5]
* NET    97 = mos6502_dihold[4]
* NET    98 = mos6502_dihold[3]
* NET    99 = mos6502_dihold[2]
* NET   100 = mos6502_dihold[1]
* NET   101 = mos6502_dihold[0]
* NET   102 = mos6502_d
* NET   103 = mos6502_cond_code[2]
* NET   104 = mos6502_cond_code[1]
* NET   105 = mos6502_cond_code[0]
* NET   106 = mos6502_compare
* NET   107 = mos6502_clv
* NET   108 = mos6502_cli
* NET   109 = mos6502_cld
* NET   110 = mos6502_clc
* NET   111 = mos6502_c
* NET   112 = mos6502_bit_ins
* NET   113 = mos6502_backwards
* NET   114 = mos6502_axys_3_7
* NET   115 = mos6502_axys_3_6
* NET   116 = mos6502_axys_3_5
* NET   117 = mos6502_axys_3_4
* NET   118 = mos6502_axys_3_3
* NET   119 = mos6502_axys_3_2
* NET   120 = mos6502_axys_3_1
* NET   121 = mos6502_axys_3_0
* NET   122 = mos6502_axys_2_7
* NET   123 = mos6502_axys_2_6
* NET   124 = mos6502_axys_2_5
* NET   125 = mos6502_axys_2_4
* NET   126 = mos6502_axys_2_3
* NET   127 = mos6502_axys_2_2
* NET   128 = mos6502_axys_2_1
* NET   129 = mos6502_axys_2_0
* NET   130 = mos6502_axys_1_7
* NET   131 = mos6502_axys_1_6
* NET   132 = mos6502_axys_1_5
* NET   133 = mos6502_axys_1_4
* NET   134 = mos6502_axys_1_3
* NET   135 = mos6502_axys_1_2
* NET   136 = mos6502_axys_1_1
* NET   137 = mos6502_axys_1_0
* NET   138 = mos6502_axys_0_7
* NET   139 = mos6502_axys_0_6
* NET   140 = mos6502_axys_0_5
* NET   141 = mos6502_axys_0_4
* NET   142 = mos6502_axys_0_3
* NET   143 = mos6502_axys_0_2
* NET   144 = mos6502_axys_0_1
* NET   145 = mos6502_axys_0_0
* NET   146 = mos6502_alu_out[7]
* NET   147 = mos6502_alu_out[6]
* NET   148 = mos6502_alu_out[5]
* NET   149 = mos6502_alu_out[4]
* NET   150 = mos6502_alu_out[3]
* NET   151 = mos6502_alu_out[2]
* NET   152 = mos6502_alu_out[1]
* NET   153 = mos6502_alu_out[0]
* NET   154 = mos6502_alu_hc
* NET   155 = mos6502_alu_co
* NET   156 = mos6502_alu_bi7
* NET   157 = mos6502_alu_ai7
* NET   158 = mos6502_adj_bcd
* NET   159 = mos6502_adc_sbc
* NET   160 = mos6502_adc_bcd
* NET   161 = mos6502_abl[7]
* NET   162 = mos6502_abl[6]
* NET   163 = mos6502_abl[5]
* NET   164 = mos6502_abl[4]
* NET   165 = mos6502_abl[3]
* NET   166 = mos6502_abl[2]
* NET   167 = mos6502_abl[1]
* NET   168 = mos6502_abl[0]
* NET   169 = mos6502_abh[7]
* NET   170 = mos6502_abh[6]
* NET   171 = mos6502_abh[5]
* NET   172 = mos6502_abh[4]
* NET   173 = mos6502_abh[3]
* NET   174 = mos6502_abh[2]
* NET   175 = mos6502_abh[1]
* NET   176 = mos6502_abh[0]
* NET   177 = irq
* NET   178 = flatten_mos6502_auto_fsm_map_cc_288_map_fsm_1405_y[5]
* NET   179 = flatten_mos6502_auto_fsm_map_cc_288_map_fsm_1405_y[4]
* NET   180 = flatten_mos6502_auto_fsm_map_cc_288_map_fsm_1405_y[3]
* NET   181 = flatten_mos6502_auto_fsm_map_cc_288_map_fsm_1405_y[2]
* NET   182 = flatten_mos6502_auto_fsm_map_cc_288_map_fsm_1405_y[1]
* NET   183 = flatten_mos6502_auto_fsm_map_cc_288_map_fsm_1405_y[0]
* NET   184 = do[7]
* NET   185 = do[6]
* NET   186 = do[5]
* NET   187 = do[4]
* NET   188 = do[3]
* NET   189 = do[2]
* NET   190 = do[1]
* NET   191 = do[0]
* NET   192 = di[7]
* NET   193 = di[6]
* NET   194 = di[5]
* NET   195 = di[4]
* NET   196 = di[3]
* NET   197 = di[2]
* NET   198 = di[1]
* NET   199 = di[0]
* NET   200 = clk_root_tr_2
* NET   201 = clk_root_tr_1
* NET   202 = clk_root_tr_0
* NET   203 = clk_root_tl_2
* NET   204 = clk_root_tl_1
* NET   205 = clk_root_tl_0
* NET   206 = clk_root_br_2
* NET   207 = clk_root_br_1
* NET   208 = clk_root_br_0
* NET   209 = clk_root_bl_2
* NET   210 = clk_root_bl_1
* NET   211 = clk_root_bl_0
* NET   212 = clk_root_0
* NET   213 = clk
* NET   214 = blockagenet
* NET   215 = abc_11873_new_n999
* NET   216 = abc_11873_new_n998
* NET   217 = abc_11873_new_n997
* NET   218 = abc_11873_new_n996
* NET   219 = abc_11873_new_n995
* NET   220 = abc_11873_new_n994
* NET   221 = abc_11873_new_n993
* NET   222 = abc_11873_new_n992
* NET   223 = abc_11873_new_n991
* NET   224 = abc_11873_new_n989
* NET   225 = abc_11873_new_n988
* NET   226 = abc_11873_new_n987
* NET   227 = abc_11873_new_n986
* NET   228 = abc_11873_new_n985
* NET   229 = abc_11873_new_n984
* NET   230 = abc_11873_new_n983
* NET   231 = abc_11873_new_n982
* NET   232 = abc_11873_new_n981
* NET   233 = abc_11873_new_n980
* NET   234 = abc_11873_new_n979
* NET   235 = abc_11873_new_n977
* NET   236 = abc_11873_new_n976
* NET   237 = abc_11873_new_n975
* NET   238 = abc_11873_new_n974
* NET   239 = abc_11873_new_n973
* NET   240 = abc_11873_new_n972
* NET   241 = abc_11873_new_n971
* NET   242 = abc_11873_new_n970
* NET   243 = abc_11873_new_n969
* NET   244 = abc_11873_new_n968
* NET   245 = abc_11873_new_n967
* NET   246 = abc_11873_new_n965
* NET   247 = abc_11873_new_n964
* NET   248 = abc_11873_new_n963
* NET   249 = abc_11873_new_n962
* NET   250 = abc_11873_new_n961
* NET   251 = abc_11873_new_n960
* NET   252 = abc_11873_new_n959
* NET   253 = abc_11873_new_n958
* NET   254 = abc_11873_new_n957
* NET   255 = abc_11873_new_n956
* NET   256 = abc_11873_new_n955
* NET   257 = abc_11873_new_n954
* NET   258 = abc_11873_new_n953
* NET   259 = abc_11873_new_n952
* NET   260 = abc_11873_new_n951
* NET   261 = abc_11873_new_n950
* NET   262 = abc_11873_new_n949
* NET   263 = abc_11873_new_n948
* NET   264 = abc_11873_new_n947
* NET   265 = abc_11873_new_n946
* NET   266 = abc_11873_new_n945
* NET   267 = abc_11873_new_n944
* NET   268 = abc_11873_new_n943
* NET   269 = abc_11873_new_n942
* NET   270 = abc_11873_new_n941
* NET   271 = abc_11873_new_n940
* NET   272 = abc_11873_new_n939
* NET   273 = abc_11873_new_n938
* NET   274 = abc_11873_new_n937
* NET   275 = abc_11873_new_n936
* NET   276 = abc_11873_new_n935
* NET   277 = abc_11873_new_n934
* NET   278 = abc_11873_new_n933
* NET   279 = abc_11873_new_n932
* NET   280 = abc_11873_new_n931
* NET   281 = abc_11873_new_n930
* NET   282 = abc_11873_new_n929
* NET   283 = abc_11873_new_n928
* NET   284 = abc_11873_new_n927
* NET   285 = abc_11873_new_n925
* NET   286 = abc_11873_new_n924
* NET   287 = abc_11873_new_n923
* NET   288 = abc_11873_new_n922
* NET   289 = abc_11873_new_n921
* NET   290 = abc_11873_new_n920
* NET   291 = abc_11873_new_n918
* NET   292 = abc_11873_new_n917
* NET   293 = abc_11873_new_n916
* NET   294 = abc_11873_new_n915
* NET   295 = abc_11873_new_n914
* NET   296 = abc_11873_new_n913
* NET   297 = abc_11873_new_n912
* NET   298 = abc_11873_new_n911
* NET   299 = abc_11873_new_n910
* NET   300 = abc_11873_new_n909
* NET   301 = abc_11873_new_n908
* NET   302 = abc_11873_new_n906
* NET   303 = abc_11873_new_n905
* NET   304 = abc_11873_new_n904
* NET   305 = abc_11873_new_n903
* NET   306 = abc_11873_new_n902
* NET   307 = abc_11873_new_n901
* NET   308 = abc_11873_new_n900
* NET   309 = abc_11873_new_n899
* NET   310 = abc_11873_new_n897
* NET   311 = abc_11873_new_n896
* NET   312 = abc_11873_new_n895
* NET   313 = abc_11873_new_n894
* NET   314 = abc_11873_new_n893
* NET   315 = abc_11873_new_n892
* NET   316 = abc_11873_new_n891
* NET   317 = abc_11873_new_n890
* NET   318 = abc_11873_new_n889
* NET   319 = abc_11873_new_n888
* NET   320 = abc_11873_new_n887
* NET   321 = abc_11873_new_n886
* NET   322 = abc_11873_new_n885
* NET   323 = abc_11873_new_n884
* NET   324 = abc_11873_new_n883
* NET   325 = abc_11873_new_n882
* NET   326 = abc_11873_new_n881
* NET   327 = abc_11873_new_n880
* NET   328 = abc_11873_new_n879
* NET   329 = abc_11873_new_n878
* NET   330 = abc_11873_new_n877
* NET   331 = abc_11873_new_n876
* NET   332 = abc_11873_new_n875
* NET   333 = abc_11873_new_n874
* NET   334 = abc_11873_new_n873
* NET   335 = abc_11873_new_n872
* NET   336 = abc_11873_new_n871
* NET   337 = abc_11873_new_n870
* NET   338 = abc_11873_new_n869
* NET   339 = abc_11873_new_n868
* NET   340 = abc_11873_new_n866
* NET   341 = abc_11873_new_n865
* NET   342 = abc_11873_new_n864
* NET   343 = abc_11873_new_n863
* NET   344 = abc_11873_new_n862
* NET   345 = abc_11873_new_n861
* NET   346 = abc_11873_new_n860
* NET   347 = abc_11873_new_n859
* NET   348 = abc_11873_new_n858
* NET   349 = abc_11873_new_n857
* NET   350 = abc_11873_new_n856
* NET   351 = abc_11873_new_n855
* NET   352 = abc_11873_new_n854
* NET   353 = abc_11873_new_n853
* NET   354 = abc_11873_new_n852
* NET   355 = abc_11873_new_n851
* NET   356 = abc_11873_new_n850
* NET   357 = abc_11873_new_n849
* NET   358 = abc_11873_new_n848
* NET   359 = abc_11873_new_n847
* NET   360 = abc_11873_new_n846
* NET   361 = abc_11873_new_n845
* NET   362 = abc_11873_new_n844
* NET   363 = abc_11873_new_n843
* NET   364 = abc_11873_new_n842
* NET   365 = abc_11873_new_n841
* NET   366 = abc_11873_new_n840
* NET   367 = abc_11873_new_n839
* NET   368 = abc_11873_new_n838
* NET   369 = abc_11873_new_n837
* NET   370 = abc_11873_new_n836
* NET   371 = abc_11873_new_n835
* NET   372 = abc_11873_new_n834
* NET   373 = abc_11873_new_n833
* NET   374 = abc_11873_new_n832
* NET   375 = abc_11873_new_n831
* NET   376 = abc_11873_new_n830
* NET   377 = abc_11873_new_n829
* NET   378 = abc_11873_new_n828
* NET   379 = abc_11873_new_n827
* NET   380 = abc_11873_new_n826
* NET   381 = abc_11873_new_n825
* NET   382 = abc_11873_new_n824
* NET   383 = abc_11873_new_n823
* NET   384 = abc_11873_new_n822
* NET   385 = abc_11873_new_n821
* NET   386 = abc_11873_new_n820
* NET   387 = abc_11873_new_n819
* NET   388 = abc_11873_new_n818
* NET   389 = abc_11873_new_n817
* NET   390 = abc_11873_new_n816
* NET   391 = abc_11873_new_n814
* NET   392 = abc_11873_new_n813
* NET   393 = abc_11873_new_n812
* NET   394 = abc_11873_new_n811
* NET   395 = abc_11873_new_n810
* NET   396 = abc_11873_new_n809
* NET   397 = abc_11873_new_n808
* NET   398 = abc_11873_new_n807
* NET   399 = abc_11873_new_n806
* NET   400 = abc_11873_new_n805
* NET   401 = abc_11873_new_n804
* NET   402 = abc_11873_new_n803
* NET   403 = abc_11873_new_n802
* NET   404 = abc_11873_new_n801
* NET   405 = abc_11873_new_n800
* NET   406 = abc_11873_new_n799
* NET   407 = abc_11873_new_n798
* NET   408 = abc_11873_new_n797
* NET   409 = abc_11873_new_n796
* NET   410 = abc_11873_new_n795
* NET   411 = abc_11873_new_n794
* NET   412 = abc_11873_new_n793
* NET   413 = abc_11873_new_n792
* NET   414 = abc_11873_new_n791
* NET   415 = abc_11873_new_n790
* NET   416 = abc_11873_new_n789
* NET   417 = abc_11873_new_n788
* NET   418 = abc_11873_new_n787
* NET   419 = abc_11873_new_n786
* NET   420 = abc_11873_new_n785
* NET   421 = abc_11873_new_n784
* NET   422 = abc_11873_new_n783
* NET   423 = abc_11873_new_n782
* NET   424 = abc_11873_new_n781
* NET   425 = abc_11873_new_n780
* NET   426 = abc_11873_new_n779
* NET   427 = abc_11873_new_n778
* NET   428 = abc_11873_new_n777
* NET   429 = abc_11873_new_n776
* NET   430 = abc_11873_new_n775
* NET   431 = abc_11873_new_n774
* NET   432 = abc_11873_new_n773
* NET   433 = abc_11873_new_n772
* NET   434 = abc_11873_new_n771
* NET   435 = abc_11873_new_n770
* NET   436 = abc_11873_new_n769
* NET   437 = abc_11873_new_n768
* NET   438 = abc_11873_new_n767
* NET   439 = abc_11873_new_n766
* NET   440 = abc_11873_new_n765
* NET   441 = abc_11873_new_n764
* NET   442 = abc_11873_new_n763
* NET   443 = abc_11873_new_n762
* NET   444 = abc_11873_new_n761
* NET   445 = abc_11873_new_n760
* NET   446 = abc_11873_new_n759
* NET   447 = abc_11873_new_n758
* NET   448 = abc_11873_new_n757
* NET   449 = abc_11873_new_n756
* NET   450 = abc_11873_new_n755
* NET   451 = abc_11873_new_n754
* NET   452 = abc_11873_new_n753
* NET   453 = abc_11873_new_n752
* NET   454 = abc_11873_new_n751
* NET   455 = abc_11873_new_n750
* NET   456 = abc_11873_new_n749
* NET   457 = abc_11873_new_n748
* NET   458 = abc_11873_new_n747
* NET   459 = abc_11873_new_n746
* NET   460 = abc_11873_new_n745
* NET   461 = abc_11873_new_n744
* NET   462 = abc_11873_new_n743
* NET   463 = abc_11873_new_n742
* NET   464 = abc_11873_new_n740
* NET   465 = abc_11873_new_n739
* NET   466 = abc_11873_new_n738
* NET   467 = abc_11873_new_n737
* NET   468 = abc_11873_new_n736
* NET   469 = abc_11873_new_n735
* NET   470 = abc_11873_new_n734
* NET   471 = abc_11873_new_n733
* NET   472 = abc_11873_new_n732
* NET   473 = abc_11873_new_n731
* NET   474 = abc_11873_new_n730
* NET   475 = abc_11873_new_n729
* NET   476 = abc_11873_new_n728
* NET   477 = abc_11873_new_n727
* NET   478 = abc_11873_new_n726
* NET   479 = abc_11873_new_n725
* NET   480 = abc_11873_new_n724
* NET   481 = abc_11873_new_n723
* NET   482 = abc_11873_new_n722
* NET   483 = abc_11873_new_n721
* NET   484 = abc_11873_new_n720
* NET   485 = abc_11873_new_n719
* NET   486 = abc_11873_new_n718
* NET   487 = abc_11873_new_n717
* NET   488 = abc_11873_new_n716
* NET   489 = abc_11873_new_n715
* NET   490 = abc_11873_new_n714
* NET   491 = abc_11873_new_n713
* NET   492 = abc_11873_new_n712
* NET   493 = abc_11873_new_n711
* NET   494 = abc_11873_new_n710
* NET   495 = abc_11873_new_n709
* NET   496 = abc_11873_new_n708
* NET   497 = abc_11873_new_n707
* NET   498 = abc_11873_new_n706
* NET   499 = abc_11873_new_n705
* NET   500 = abc_11873_new_n704
* NET   501 = abc_11873_new_n703
* NET   502 = abc_11873_new_n702
* NET   503 = abc_11873_new_n701
* NET   504 = abc_11873_new_n700
* NET   505 = abc_11873_new_n699
* NET   506 = abc_11873_new_n698
* NET   507 = abc_11873_new_n697
* NET   508 = abc_11873_new_n696
* NET   509 = abc_11873_new_n695
* NET   510 = abc_11873_new_n694
* NET   511 = abc_11873_new_n693
* NET   512 = abc_11873_new_n692
* NET   513 = abc_11873_new_n691
* NET   514 = abc_11873_new_n690
* NET   515 = abc_11873_new_n689
* NET   516 = abc_11873_new_n688
* NET   517 = abc_11873_new_n687
* NET   518 = abc_11873_new_n686
* NET   519 = abc_11873_new_n685
* NET   520 = abc_11873_new_n684
* NET   521 = abc_11873_new_n683
* NET   522 = abc_11873_new_n682
* NET   523 = abc_11873_new_n681
* NET   524 = abc_11873_new_n680
* NET   525 = abc_11873_new_n679
* NET   526 = abc_11873_new_n678
* NET   527 = abc_11873_new_n677
* NET   528 = abc_11873_new_n676
* NET   529 = abc_11873_new_n675
* NET   530 = abc_11873_new_n674
* NET   531 = abc_11873_new_n673
* NET   532 = abc_11873_new_n672
* NET   533 = abc_11873_new_n671
* NET   534 = abc_11873_new_n670
* NET   535 = abc_11873_new_n669
* NET   536 = abc_11873_new_n668
* NET   537 = abc_11873_new_n667
* NET   538 = abc_11873_new_n666
* NET   539 = abc_11873_new_n665
* NET   540 = abc_11873_new_n664
* NET   541 = abc_11873_new_n663
* NET   542 = abc_11873_new_n662
* NET   543 = abc_11873_new_n661
* NET   544 = abc_11873_new_n660
* NET   545 = abc_11873_new_n659
* NET   546 = abc_11873_new_n658
* NET   547 = abc_11873_new_n657
* NET   548 = abc_11873_new_n656_hfns_2
* NET   549 = abc_11873_new_n656_hfns_1
* NET   550 = abc_11873_new_n656_hfns_0
* NET   551 = abc_11873_new_n656
* NET   552 = abc_11873_new_n655
* NET   553 = abc_11873_new_n654
* NET   554 = abc_11873_new_n653
* NET   555 = abc_11873_new_n652
* NET   556 = abc_11873_new_n651
* NET   557 = abc_11873_new_n650
* NET   558 = abc_11873_new_n649
* NET   559 = abc_11873_new_n648
* NET   560 = abc_11873_new_n647
* NET   561 = abc_11873_new_n646
* NET   562 = abc_11873_new_n645
* NET   563 = abc_11873_new_n644
* NET   564 = abc_11873_new_n643
* NET   565 = abc_11873_new_n642
* NET   566 = abc_11873_new_n641
* NET   567 = abc_11873_new_n640
* NET   568 = abc_11873_new_n639
* NET   569 = abc_11873_new_n638
* NET   570 = abc_11873_new_n637
* NET   571 = abc_11873_new_n636
* NET   572 = abc_11873_new_n635
* NET   573 = abc_11873_new_n634
* NET   574 = abc_11873_new_n633
* NET   575 = abc_11873_new_n632
* NET   576 = abc_11873_new_n631
* NET   577 = abc_11873_new_n630
* NET   578 = abc_11873_new_n629
* NET   579 = abc_11873_new_n628
* NET   580 = abc_11873_new_n627
* NET   581 = abc_11873_new_n626
* NET   582 = abc_11873_new_n625
* NET   583 = abc_11873_new_n624
* NET   584 = abc_11873_new_n623
* NET   585 = abc_11873_new_n622
* NET   586 = abc_11873_new_n621
* NET   587 = abc_11873_new_n620
* NET   588 = abc_11873_new_n619
* NET   589 = abc_11873_new_n618
* NET   590 = abc_11873_new_n617
* NET   591 = abc_11873_new_n616
* NET   592 = abc_11873_new_n615
* NET   593 = abc_11873_new_n614
* NET   594 = abc_11873_new_n613
* NET   595 = abc_11873_new_n612
* NET   596 = abc_11873_new_n611
* NET   597 = abc_11873_new_n610
* NET   598 = abc_11873_new_n609
* NET   599 = abc_11873_new_n608
* NET   600 = abc_11873_new_n607
* NET   601 = abc_11873_new_n606
* NET   602 = abc_11873_new_n605
* NET   603 = abc_11873_new_n604
* NET   604 = abc_11873_new_n603
* NET   605 = abc_11873_new_n602
* NET   606 = abc_11873_new_n601
* NET   607 = abc_11873_new_n600
* NET   608 = abc_11873_new_n599
* NET   609 = abc_11873_new_n598
* NET   610 = abc_11873_new_n597
* NET   611 = abc_11873_new_n596
* NET   612 = abc_11873_new_n595
* NET   613 = abc_11873_new_n594
* NET   614 = abc_11873_new_n593
* NET   615 = abc_11873_new_n592
* NET   616 = abc_11873_new_n591
* NET   617 = abc_11873_new_n590
* NET   618 = abc_11873_new_n589
* NET   619 = abc_11873_new_n588
* NET   620 = abc_11873_new_n587
* NET   621 = abc_11873_new_n586
* NET   622 = abc_11873_new_n585
* NET   623 = abc_11873_new_n584
* NET   624 = abc_11873_new_n583
* NET   625 = abc_11873_new_n582
* NET   626 = abc_11873_new_n581
* NET   627 = abc_11873_new_n580
* NET   628 = abc_11873_new_n579
* NET   629 = abc_11873_new_n578
* NET   630 = abc_11873_new_n577
* NET   631 = abc_11873_new_n576
* NET   632 = abc_11873_new_n575
* NET   633 = abc_11873_new_n574
* NET   634 = abc_11873_new_n573
* NET   635 = abc_11873_new_n572
* NET   636 = abc_11873_new_n571
* NET   637 = abc_11873_new_n570
* NET   638 = abc_11873_new_n569
* NET   639 = abc_11873_new_n568
* NET   640 = abc_11873_new_n567
* NET   641 = abc_11873_new_n566
* NET   642 = abc_11873_new_n565
* NET   643 = abc_11873_new_n564
* NET   644 = abc_11873_new_n563
* NET   645 = abc_11873_new_n562
* NET   646 = abc_11873_new_n561_hfns_2
* NET   647 = abc_11873_new_n561_hfns_1
* NET   648 = abc_11873_new_n561_hfns_0
* NET   649 = abc_11873_new_n561
* NET   650 = abc_11873_new_n560
* NET   651 = abc_11873_new_n559
* NET   652 = abc_11873_new_n558
* NET   653 = abc_11873_new_n557
* NET   654 = abc_11873_new_n556
* NET   655 = abc_11873_new_n555
* NET   656 = abc_11873_new_n554
* NET   657 = abc_11873_new_n553
* NET   658 = abc_11873_new_n552
* NET   659 = abc_11873_new_n551
* NET   660 = abc_11873_new_n550
* NET   661 = abc_11873_new_n549
* NET   662 = abc_11873_new_n548
* NET   663 = abc_11873_new_n547
* NET   664 = abc_11873_new_n546
* NET   665 = abc_11873_new_n545
* NET   666 = abc_11873_new_n544
* NET   667 = abc_11873_new_n543
* NET   668 = abc_11873_new_n542
* NET   669 = abc_11873_new_n541
* NET   670 = abc_11873_new_n540
* NET   671 = abc_11873_new_n539
* NET   672 = abc_11873_new_n538
* NET   673 = abc_11873_new_n537
* NET   674 = abc_11873_new_n536
* NET   675 = abc_11873_new_n535
* NET   676 = abc_11873_new_n534
* NET   677 = abc_11873_new_n533
* NET   678 = abc_11873_new_n532_hfns_3
* NET   679 = abc_11873_new_n532_hfns_2
* NET   680 = abc_11873_new_n532_hfns_1
* NET   681 = abc_11873_new_n532_hfns_0
* NET   682 = abc_11873_new_n532
* NET   683 = abc_11873_new_n531
* NET   684 = abc_11873_new_n530
* NET   685 = abc_11873_new_n529
* NET   686 = abc_11873_new_n528
* NET   687 = abc_11873_new_n527
* NET   688 = abc_11873_new_n526
* NET   689 = abc_11873_new_n525
* NET   690 = abc_11873_new_n524
* NET   691 = abc_11873_new_n523
* NET   692 = abc_11873_new_n522
* NET   693 = abc_11873_new_n521
* NET   694 = abc_11873_new_n520
* NET   695 = abc_11873_new_n519
* NET   696 = abc_11873_new_n518_hfns_2
* NET   697 = abc_11873_new_n518_hfns_1
* NET   698 = abc_11873_new_n518_hfns_0
* NET   699 = abc_11873_new_n518
* NET   700 = abc_11873_new_n517
* NET   701 = abc_11873_new_n516
* NET   702 = abc_11873_new_n515
* NET   703 = abc_11873_new_n514
* NET   704 = abc_11873_new_n513
* NET   705 = abc_11873_new_n512
* NET   706 = abc_11873_new_n511
* NET   707 = abc_11873_new_n510
* NET   708 = abc_11873_new_n509
* NET   709 = abc_11873_new_n508
* NET   710 = abc_11873_new_n507
* NET   711 = abc_11873_new_n506_hfns_2
* NET   712 = abc_11873_new_n506_hfns_1
* NET   713 = abc_11873_new_n506_hfns_0
* NET   714 = abc_11873_new_n506
* NET   715 = abc_11873_new_n505
* NET   716 = abc_11873_new_n504_hfns_3
* NET   717 = abc_11873_new_n504_hfns_2
* NET   718 = abc_11873_new_n504_hfns_1
* NET   719 = abc_11873_new_n504_hfns_0
* NET   720 = abc_11873_new_n504
* NET   721 = abc_11873_new_n503
* NET   722 = abc_11873_new_n502
* NET   723 = abc_11873_new_n501
* NET   724 = abc_11873_new_n500
* NET   725 = abc_11873_new_n499
* NET   726 = abc_11873_new_n498
* NET   727 = abc_11873_new_n497
* NET   728 = abc_11873_new_n496
* NET   729 = abc_11873_new_n495
* NET   730 = abc_11873_new_n494
* NET   731 = abc_11873_new_n493
* NET   732 = abc_11873_new_n492
* NET   733 = abc_11873_new_n491
* NET   734 = abc_11873_new_n490
* NET   735 = abc_11873_new_n489
* NET   736 = abc_11873_new_n488
* NET   737 = abc_11873_new_n487
* NET   738 = abc_11873_new_n486
* NET   739 = abc_11873_new_n485
* NET   740 = abc_11873_new_n484
* NET   741 = abc_11873_new_n483
* NET   742 = abc_11873_new_n482
* NET   743 = abc_11873_new_n481
* NET   744 = abc_11873_new_n480
* NET   745 = abc_11873_new_n479_hfns_2
* NET   746 = abc_11873_new_n479_hfns_1
* NET   747 = abc_11873_new_n479_hfns_0
* NET   748 = abc_11873_new_n479
* NET   749 = abc_11873_new_n478
* NET   750 = abc_11873_new_n477
* NET   751 = abc_11873_new_n476
* NET   752 = abc_11873_new_n475
* NET   753 = abc_11873_new_n474
* NET   754 = abc_11873_new_n473
* NET   755 = abc_11873_new_n472
* NET   756 = abc_11873_new_n471
* NET   757 = abc_11873_new_n470
* NET   758 = abc_11873_new_n469
* NET   759 = abc_11873_new_n468
* NET   760 = abc_11873_new_n467
* NET   761 = abc_11873_new_n466
* NET   762 = abc_11873_new_n465
* NET   763 = abc_11873_new_n464
* NET   764 = abc_11873_new_n463
* NET   765 = abc_11873_new_n462
* NET   766 = abc_11873_new_n461
* NET   767 = abc_11873_new_n460
* NET   768 = abc_11873_new_n459
* NET   769 = abc_11873_new_n458
* NET   770 = abc_11873_new_n457
* NET   771 = abc_11873_new_n456
* NET   772 = abc_11873_new_n455
* NET   773 = abc_11873_new_n454
* NET   774 = abc_11873_new_n453
* NET   775 = abc_11873_new_n452
* NET   776 = abc_11873_new_n451
* NET   777 = abc_11873_new_n450
* NET   778 = abc_11873_new_n449_hfns_2
* NET   779 = abc_11873_new_n449_hfns_1
* NET   780 = abc_11873_new_n449_hfns_0
* NET   781 = abc_11873_new_n449
* NET   782 = abc_11873_new_n448_hfns_2
* NET   783 = abc_11873_new_n448_hfns_1
* NET   784 = abc_11873_new_n448_hfns_0
* NET   785 = abc_11873_new_n448
* NET   786 = abc_11873_new_n447_hfns_2
* NET   787 = abc_11873_new_n447_hfns_1
* NET   788 = abc_11873_new_n447_hfns_0
* NET   789 = abc_11873_new_n447
* NET   790 = abc_11873_new_n446
* NET   791 = abc_11873_new_n445_hfns_4
* NET   792 = abc_11873_new_n445_hfns_3
* NET   793 = abc_11873_new_n445_hfns_2
* NET   794 = abc_11873_new_n445_hfns_1
* NET   795 = abc_11873_new_n445_hfns_0
* NET   796 = abc_11873_new_n445
* NET   797 = abc_11873_new_n444
* NET   798 = abc_11873_new_n443_hfns_2
* NET   799 = abc_11873_new_n443_hfns_1
* NET   800 = abc_11873_new_n443_hfns_0
* NET   801 = abc_11873_new_n443
* NET   802 = abc_11873_new_n441
* NET   803 = abc_11873_new_n439
* NET   804 = abc_11873_new_n437
* NET   805 = abc_11873_new_n435
* NET   806 = abc_11873_new_n433
* NET   807 = abc_11873_new_n431
* NET   808 = abc_11873_new_n429
* NET   809 = abc_11873_new_n427
* NET   810 = abc_11873_new_n426
* NET   811 = abc_11873_new_n425
* NET   812 = abc_11873_new_n424
* NET   813 = abc_11873_new_n423
* NET   814 = abc_11873_new_n422
* NET   815 = abc_11873_new_n421
* NET   816 = abc_11873_new_n420
* NET   817 = abc_11873_new_n419
* NET   818 = abc_11873_new_n418
* NET   819 = abc_11873_new_n417
* NET   820 = abc_11873_new_n416
* NET   821 = abc_11873_new_n415
* NET   822 = abc_11873_new_n414
* NET   823 = abc_11873_new_n413
* NET   824 = abc_11873_new_n412
* NET   825 = abc_11873_new_n411
* NET   826 = abc_11873_new_n410
* NET   827 = abc_11873_new_n409
* NET   828 = abc_11873_new_n408
* NET   829 = abc_11873_new_n407
* NET   830 = abc_11873_new_n406
* NET   831 = abc_11873_new_n405
* NET   832 = abc_11873_new_n404
* NET   833 = abc_11873_new_n403
* NET   834 = abc_11873_new_n402
* NET   835 = abc_11873_new_n401
* NET   836 = abc_11873_new_n400
* NET   837 = abc_11873_new_n399
* NET   838 = abc_11873_new_n398
* NET   839 = abc_11873_new_n397
* NET   840 = abc_11873_new_n396
* NET   841 = abc_11873_new_n395
* NET   842 = abc_11873_new_n394
* NET   843 = abc_11873_new_n393
* NET   844 = abc_11873_new_n392
* NET   845 = abc_11873_new_n391
* NET   846 = abc_11873_new_n390
* NET   847 = abc_11873_new_n389
* NET   848 = abc_11873_new_n388
* NET   849 = abc_11873_new_n387
* NET   850 = abc_11873_new_n386
* NET   851 = abc_11873_new_n385
* NET   852 = abc_11873_new_n384
* NET   853 = abc_11873_new_n383
* NET   854 = abc_11873_new_n382
* NET   855 = abc_11873_new_n381
* NET   856 = abc_11873_new_n380
* NET   857 = abc_11873_new_n379
* NET   858 = abc_11873_new_n378
* NET   859 = abc_11873_new_n377
* NET   860 = abc_11873_new_n376
* NET   861 = abc_11873_new_n375
* NET   862 = abc_11873_new_n374
* NET   863 = abc_11873_new_n373
* NET   864 = abc_11873_new_n372
* NET   865 = abc_11873_new_n371
* NET   866 = abc_11873_new_n370
* NET   867 = abc_11873_new_n369
* NET   868 = abc_11873_new_n368
* NET   869 = abc_11873_new_n367
* NET   870 = abc_11873_new_n366
* NET   871 = abc_11873_new_n365